Circuit: * E:\School\Fall 2018\VLSI\lab 4\Lab 3 and 4 VLSI\16_bit_Full_Adder.asc

WARNING: Specified period is not longer than the sum of Trise, Tfall, and Ton for v33.  Increasing period to 0.05
Direct Newton iteration for .op point succeeded.

Date: Mon Dec 03 23:31:30 2018
Total elapsed time: 1.529 seconds.

tnom = 27
temp = 27
method = modified trap
totiter = 12519
traniter = 12470
tranpoints = 4501
accept = 3934
rejected = 567
matrix size = 402
fillins = 441
solver = Normal
Thread vector: 71.2/38.5[8] 71.1/25.5[8] 34.1/14.6[8] 2.1/2.3[1]  2592/500
Matrix Compiler1: 78.86 KB object code size  22.8/9.1/[4.4]
Matrix Compiler2: 55.98 KB object code size  9.9/7.8/[4.0]

